Version 4
SHEET 1 880 680
WIRE -304 -304 -304 -352
WIRE -128 -304 -128 -352
WIRE -352 -224 -512 -224
WIRE -176 -224 -224 -224
WIRE -880 -176 -880 -208
WIRE -304 -144 -304 -208
WIRE -128 -144 -128 -208
WIRE -128 -144 -304 -144
WIRE 128 -144 -128 -144
WIRE -128 -80 -128 -144
WIRE -512 0 -512 -224
WIRE -512 0 -592 0
WIRE -176 0 -512 0
WIRE -128 96 -128 16
WIRE -224 176 -224 -224
WIRE -224 176 -592 176
WIRE -176 176 -224 176
WIRE -128 288 -128 192
FLAG -880 -176 0
FLAG -880 -288 VDD
FLAG -768 -288 A
FLAG -688 -288 B
FLAG -768 -208 0
FLAG -688 -208 0
FLAG -128 288 0
FLAG -304 -352 VDD
FLAG -128 -352 VDD
FLAG -592 0 A
IOPIN -592 0 In
FLAG -592 176 B
IOPIN -592 176 In
FLAG -304 -256 VDD
FLAG -128 -256 VDD
FLAG -128 -32 0
FLAG -128 144 0
FLAG 128 -144 Vout
IOPIN 128 -144 Out
SYMBOL voltage -880 -304 R0
SYMATTR InstName VDD
SYMATTR Value 1
SYMBOL voltage -768 -304 R0
WINDOW 3 -206 193 Left 2
WINDOW 123 0 0 Left 0
WINDOW 39 0 0 Left 0
SYMATTR InstName A
SYMATTR Value PULSE(0 1 50n 1p 1p 100n 250n)
SYMBOL voltage -688 -304 R0
WINDOW 123 0 0 Left 0
WINDOW 39 0 0 Left 0
SYMATTR InstName B
SYMATTR Value PULSE(0 1 100n 1p 1p 100n 250n)
SYMBOL pmos4 -352 -304 R0
SYMATTR InstName M1
SYMATTR Value P_50n
SYMATTR Value2 l=50n w=0.4u
SYMBOL pmos4 -176 -304 R0
SYMATTR InstName M2
SYMATTR Value P_50n
SYMATTR Value2 l=50n w=0.4u
SYMBOL nmos4 -176 -80 R0
SYMATTR InstName M3
SYMATTR Value N_50n
SYMATTR Value2 l=50n w=0.4u
SYMBOL nmos4 -176 96 R0
SYMATTR InstName M4
SYMATTR Value N_50n
SYMATTR Value2 l=50n w=0.4u
TEXT -928 -416 Left 2 !;dc Vin 0 1 0.01
TEXT -928 -440 Left 2 !.lib cmosedu_models.txt
TEXT -928 -392 Left 2 !.tran 0 500n 0 10p
