Version 4
SHEET 1 880 680
WIRE 64 -480 64 -560
WIRE 16 -400 -256 -400
WIRE -256 -368 -256 -400
WIRE -256 -368 -352 -368
WIRE 64 -336 64 -384
WIRE 16 -256 -16 -256
WIRE -880 -176 -880 -208
WIRE -16 -144 -16 -256
WIRE -16 -144 -352 -144
WIRE 64 -144 64 -240
WIRE 496 -144 64 -144
WIRE 64 -112 64 -144
WIRE 64 -112 -96 -112
WIRE 240 -112 64 -112
WIRE -96 -64 -96 -112
WIRE 240 -64 240 -112
WIRE -256 16 -256 -368
WIRE -144 16 -256 16
WIRE -16 16 -16 -144
WIRE 192 16 -16 16
WIRE 208 16 192 16
WIRE -96 48 -96 32
WIRE 64 48 -96 48
WIRE 240 48 240 32
WIRE 240 48 64 48
WIRE 64 64 64 48
FLAG -880 -176 0
FLAG -880 -288 VDD
FLAG -880 -128 A
FLAG -880 0 B
FLAG -880 -48 0
FLAG -880 80 0
FLAG 240 -16 0
FLAG -96 -16 0
FLAG 64 -432 VDD
FLAG -352 -368 A
IOPIN -352 -368 In
FLAG -352 -144 B
IOPIN -352 -144 In
FLAG 496 -144 Vout
IOPIN 496 -144 Out
FLAG 64 -560 VDD
FLAG 64 64 0
FLAG 64 -288 VDD
SYMBOL voltage -880 -304 R0
SYMATTR InstName VDD
SYMATTR Value 1
SYMBOL voltage -880 -144 R0
WINDOW 3 39 53 Left 2
WINDOW 123 0 0 Left 0
WINDOW 39 0 0 Left 0
SYMATTR Value PULSE(0 1 50n 1p 1p 100n 250n)
SYMATTR InstName A
SYMBOL voltage -880 -16 R0
WINDOW 123 0 0 Left 0
WINDOW 39 0 0 Left 0
WINDOW 3 35 52 Left 2
SYMATTR Value PULSE(0 1 100n 1p 1p 100n 250n)
SYMATTR InstName B
SYMBOL pmos4 16 -480 R0
SYMATTR InstName M1
SYMATTR Value P_50n
SYMATTR Value2 l=50n w=0.8u
SYMBOL pmos4 16 -336 R0
SYMATTR InstName M3
SYMATTR Value P_50n
SYMATTR Value2 l=50n w=0.8u
SYMBOL nmos4 -144 -64 R0
SYMATTR InstName M5
SYMATTR Value N_50n
SYMATTR Value2 l=50n w=0.2u
SYMBOL nmos4 192 -64 R0
SYMATTR InstName M6
SYMATTR Value N_50n
SYMATTR Value2 l=50n w=0.2u
TEXT -928 -416 Left 2 !;dc Vin 0 1 0.01
TEXT -928 -440 Left 2 !.lib cmosedu_models.txt
TEXT -928 -392 Left 2 !.tran 0 500n 0 10p
